P-CAD 2001 PCB (6/400) Version 16.00.56 Routing Log File

======================================================================

Input file:    C:\Users\Король Андрей\Documents\P-CAD PCB\PES.PCB
Output file:   C:\Users\Король Андрей\Documents\P-CAD PCB\RPES.PCB
Strategy file: C:\Users\Король Андрей\Documents\P-CAD PCB\PES.STR

All dimensions are in mms unless stated.

Routed by:     Quick Route

Start time:    15:29:26 29-May-18

Free memory:   -1554829312

Strategy selections:

  Routing grid:                0.635 


Layer selections:

  Signal Bias or    Plane                        Clearances
  Layer  Selection  Net Name          P-P   P-L   L-L   V-P   V-L   V-
V
  ------ ---------- ---------------- ----- ----- ----- ----- ----- ---
--
  Top    Hor                            13    13    13    13    13    
13
  Bottom Ver                            13    13    13    13    13    
13
  --------------------------------------------------------------------
--


  * Selected by router.


Net classes:

    Net                                          Max
   Class  Width     Via Padstack     Prio Layer  Vias Notes
  ------- ----- -------------------- ---- ------ ---- -----
  Default 0.305 Via_1                   1 All      *       
  ---------------------------------------------------------
  Notes: F = Fixed, do not ripup.
         N = Do not route.
         W = Use wide pass.


Scheduled pass selection:

  Pass                    Net Classes
  Num  Pass Name          DFT
  ---- ------------------ -----------
    1  Wide line routing   x 
    2  Horizontal          x 
    3  Vertical            x 
    4  'L' routes          x 
    5  'Z' routes          x 
    6  'C' routes          x 

----------------------------------------------------------------------

29-May-18  15:29                                            Page    1

P-CAD 2001 PCB (6/400) Version 16.00.56 Routing Log File

======================================================================

    7  Any node (2 vias)   x 
    8  Maze                x 
    9  Any node (maze)     x 
   10  Trace cleanup #1    x 
   11  Trace cleanup #2    x 
   12  Via minimization    x 
   13  Via minimization      
  -----------------------------------

  * Selected by router.















































----------------------------------------------------------------------

29-May-18  15:29                                            Page    2

P-CAD 2001 PCB (6/400) Version 16.00.56 Routing Log File

======================================================================

71 total connections on the board.

Pass Performance Summary:

 Net class: Default  Width: 0.305mm       Via Padstack: Via_1         
      
  Wide line routing      Pass Num:   1    Overall
  ---------------------- ---------------- ---------
  Routes                                         71
    Completed                    0 (100%)         0 (  0%)
    Not completed                0 (100%)        71
  Vias                           0 (100%)         0
  Elapsed time             0:00:01 (100%)   0:00:01
  -------------------------------------------------


 Net class: Default  Width: 0.305mm       Via Padstack: Via_1         
      
  Horizontal             Pass Num:   2    Overall
  ---------------------- ---------------- ---------
  Routes                                         71
    Completed                   20 (100%)        20 ( 28%)
    Not completed                0 (  0%)        51
  Vias                           0 (100%)         0
  Elapsed time             0:00:00 (  0%)   0:00:01
  -------------------------------------------------


 Net class: Default  Width: 0.305mm       Via Padstack: Via_1         
      
  Vertical               Pass Num:   3    Overall
  ---------------------- ---------------- ---------
  Routes                                         71
    Completed                    9 (100%)        29 ( 40%)
    Not completed                0 (  0%)        42
  Vias                           0 (100%)         0
  Elapsed time             0:00:01 ( 50%)   0:00:02
  -------------------------------------------------


 Net class: Default  Width: 0.305mm       Via Padstack: Via_1         
      
  'L' routes             Pass Num:   4    Overall
  ---------------------- ---------------- ---------
  Routes                                         71
    Completed                   34 (100%)        63 ( 88%)
    Not completed                0 (  0%)         8
  Vias                          32 (100%)        32
  Elapsed time             0:00:02 ( 50%)   0:00:04
  -------------------------------------------------


 Net class: Default  Width: 0.305mm       Via Padstack: Via_1         
      
  'Z' routes             Pass Num:   5    Overall
  ---------------------- ---------------- ---------
  Routes                                         71
    Completed                    2 (100%)        65 ( 91%)

----------------------------------------------------------------------

29-May-18  15:29                                            Page    3

P-CAD 2001 PCB (6/400) Version 16.00.56 Routing Log File

======================================================================

    Not completed                0 (  0%)         6
  Vias                           4 ( 11%)        36
  Elapsed time             0:00:00 (  0%)   0:00:04
  -------------------------------------------------


 Net class: Default  Width: 0.305mm       Via Padstack: Via_1         
      
  'C' routes             Pass Num:   6    Overall
  ---------------------- ---------------- ---------
  Routes                                         71
    Completed                    1 (100%)        66 ( 92%)
    Not completed                0 (  0%)         5
  Vias                           2 (  5%)        38
  Elapsed time             0:00:02 ( 33%)   0:00:06
  -------------------------------------------------


 Net class: Default  Width: 0.305mm       Via Padstack: Via_1         
      
  Any node (2 vias)      Pass Num:   7    Overall
  ---------------------- ---------------- ---------
  Routes                                         71
    Completed                    3 (100%)        69 ( 97%)
    Not completed                0 (  0%)         2
  Vias                           4 (  9%)        42
  Elapsed time             0:00:02 ( 25%)   0:00:08
  -------------------------------------------------


 Net class: Default  Width: 0.305mm       Via Padstack: Via_1         
      
  Maze                   Pass Num:   8    Overall
  ---------------------- ---------------- ---------
  Routes                                         71
    Completed                    2 (100%)        71 (100%)
    Not completed                0 (  0%)         0
  Vias                           5 ( 10%)        47
  Elapsed time             0:00:01 ( 11%)   0:00:09
  -------------------------------------------------


 Net class: Default  Width: 0.305mm       Via Padstack: Via_1         
      
  Any node (maze)        Pass Num:   9    Overall
  ---------------------- ---------------- ---------
  Routes                                         71
    Completed                    0 (100%)        71 (100%)
    Not completed                0 (100%)         0
  Vias                           0 (  0%)        47
  Elapsed time             0:00:00 (  0%)   0:00:09
  -------------------------------------------------


 Net class: Default  Width: 0.305mm       Via Padstack: Via_1         
      
  Trace cleanup #1       Pass Num:  10    Overall

----------------------------------------------------------------------

29-May-18  15:29                                            Page    4

P-CAD 2001 PCB (6/400) Version 16.00.56 Routing Log File

======================================================================

  ---------------------- ---------------- ---------
  Routes                                         71
    Completed                    0 (100%)        71 (100%)
    Not completed                0 (100%)         0
  Vias                           0 (  0%)        47
  Elapsed time             0:00:01 ( 10%)   0:00:10
  -------------------------------------------------


 Net class: Default  Width: 0.305mm       Via Padstack: Via_1         
      
  Trace cleanup #2       Pass Num:  11    Overall
  ---------------------- ---------------- ---------
  Routes                                         71
    Completed                    0 (100%)        71 (100%)
    Not completed                0 (100%)         0
  Vias                           0 (  0%)        47
  Elapsed time             0:00:03 ( 23%)   0:00:13
  -------------------------------------------------


 Net class: Default  Width: 0.305mm       Via Padstack: Via_1         
      
  Via minimization       Pass Num:  12    Overall
  ---------------------- ---------------- ---------
  Routes                                         71
    Completed                    0 (100%)        71 (100%)
    Not completed                0 (100%)         0
  Vias                         -11 (-23%)        36
  Elapsed time             0:00:02 ( 13%)   0:00:15
  -------------------------------------------------



Final statistics:

  Board:
    Physical dimensions (   cms):            6.025 by 6.025
    Routing area (square    cms):           36.305
    Total pads in file:                    108
    Equivalent 16-pin ICs (EICs):            6.750
    Density (square    cms per EIC):         5.379
  Routing performance:
    Vias total:                             36 ( 33% of total pads)
    Vias added:                             36 (100% of total vias)
    Routed connections (this run):          71
    Routed connections (total):             71 (100%)
    Unrouted connections (total):            0 (  0%)
    Total routing time:                0:00:15

Start time:       15:29:26 29-May-18
Completion time:  15:29:41 29-May-18
Free memory:      -1554829312

End of log file.
